<net>

    <location netOffset="0.00,0.00" convBoundary="0.00,0.00,800.00,400.00" origBoundary="0.00,0.00,800.00,400.00" projParameter="!"/>

    <edge id=":A0_0" function="internal">
        <lane id=":A0_0_0" index="0" speed="6.51" length="9.03" shape="195.20,210.40 194.85,207.95 193.80,206.20 192.05,205.15 189.60,204.80"/>
    </edge>
    <edge id=":A0_1" function="internal">
        <lane id=":A0_1_0" index="0" speed="13.89" length="20.80" shape="195.20,210.40 195.20,189.60"/>
    </edge>
    <edge id=":A0_2" function="internal">
        <lane id=":A0_2_0" index="0" speed="9.26" length="10.42" shape="198.40,210.40 199.15,205.15 201.40,201.40 202.04,201.02"/>
    </edge>
    <edge id=":A0_12" function="internal">
        <lane id=":A0_12_0" index="0" speed="9.26" length="8.93" shape="202.04,201.02 205.15,199.15 210.40,198.40"/>
    </edge>
    <edge id=":A0_3" function="internal">
        <lane id=":A0_3_0" index="0" speed="6.51" length="9.03" shape="210.40,204.80 207.95,205.15 206.20,206.20 205.15,207.95 204.80,210.40"/>
    </edge>
    <edge id=":A0_4" function="internal">
        <lane id=":A0_4_0" index="0" speed="13.89" length="20.80" shape="210.40,204.80 189.60,204.80"/>
    </edge>
    <edge id=":A0_5" function="internal">
        <lane id=":A0_5_0" index="0" speed="9.26" length="10.42" shape="210.40,201.60 205.15,200.85 201.40,198.60 201.02,197.96"/>
    </edge>
    <edge id=":A0_13" function="internal">
        <lane id=":A0_13_0" index="0" speed="9.26" length="8.93" shape="201.02,197.96 199.15,194.85 198.40,189.60"/>
    </edge>
    <edge id=":A0_6" function="internal">
        <lane id=":A0_6_0" index="0" speed="6.51" length="9.03" shape="204.80,189.60 205.15,192.05 206.20,193.80 207.95,194.85 210.40,195.20"/>
    </edge>
    <edge id=":A0_7" function="internal">
        <lane id=":A0_7_0" index="0" speed="13.89" length="20.80" shape="204.80,189.60 204.80,210.40"/>
    </edge>
    <edge id=":A0_8" function="internal">
        <lane id=":A0_8_0" index="0" speed="9.26" length="10.42" shape="201.60,189.60 200.85,194.85 198.60,198.60 197.96,198.98"/>
    </edge>
    <edge id=":A0_14" function="internal">
        <lane id=":A0_14_0" index="0" speed="9.26" length="8.93" shape="197.96,198.98 194.85,200.85 189.60,201.60"/>
    </edge>
    <edge id=":A0_9" function="internal">
        <lane id=":A0_9_0" index="0" speed="6.51" length="9.03" shape="189.60,195.20 192.05,194.85 193.80,193.80 194.85,192.05 195.20,189.60"/>
    </edge>
    <edge id=":A0_10" function="internal">
        <lane id=":A0_10_0" index="0" speed="13.89" length="20.80" shape="189.60,195.20 210.40,195.20"/>
    </edge>
    <edge id=":A0_11" function="internal">
        <lane id=":A0_11_0" index="0" speed="9.26" length="10.42" shape="189.60,198.40 194.85,199.15 198.60,201.40 198.98,202.04"/>
    </edge>
    <edge id=":A0_15" function="internal">
        <lane id=":A0_15_0" index="0" speed="9.26" length="8.93" shape="198.98,202.04 200.85,205.15 201.60,210.40"/>
    </edge>
    <edge id=":B0_0" function="internal">
        <lane id=":B0_0_0" index="0" speed="6.51" length="9.03" shape="395.20,210.40 394.85,207.95 393.80,206.20 392.05,205.15 389.60,204.80"/>
    </edge>
    <edge id=":B0_1" function="internal">
        <lane id=":B0_1_0" index="0" speed="13.89" length="20.80" shape="395.20,210.40 395.20,189.60"/>
    </edge>
    <edge id=":B0_2" function="internal">
        <lane id=":B0_2_0" index="0" speed="9.26" length="10.42" shape="398.40,210.40 399.15,205.15 401.40,201.40 402.04,201.02"/>
    </edge>
    <edge id=":B0_12" function="internal">
        <lane id=":B0_12_0" index="0" speed="9.26" length="8.93" shape="402.04,201.02 405.15,199.15 410.40,198.40"/>
    </edge>
    <edge id=":B0_3" function="internal">
        <lane id=":B0_3_0" index="0" speed="6.51" length="9.03" shape="410.40,204.80 407.95,205.15 406.20,206.20 405.15,207.95 404.80,210.40"/>
    </edge>
    <edge id=":B0_4" function="internal">
        <lane id=":B0_4_0" index="0" speed="13.89" length="20.80" shape="410.40,204.80 389.60,204.80"/>
    </edge>
    <edge id=":B0_5" function="internal">
        <lane id=":B0_5_0" index="0" speed="9.26" length="10.42" shape="410.40,201.60 405.15,200.85 401.40,198.60 401.02,197.96"/>
    </edge>
    <edge id=":B0_13" function="internal">
        <lane id=":B0_13_0" index="0" speed="9.26" length="8.93" shape="401.02,197.96 399.15,194.85 398.40,189.60"/>
    </edge>
    <edge id=":B0_6" function="internal">
        <lane id=":B0_6_0" index="0" speed="6.51" length="9.03" shape="404.80,189.60 405.15,192.05 406.20,193.80 407.95,194.85 410.40,195.20"/>
    </edge>
    <edge id=":B0_7" function="internal">
        <lane id=":B0_7_0" index="0" speed="13.89" length="20.80" shape="404.80,189.60 404.80,210.40"/>
    </edge>
    <edge id=":B0_8" function="internal">
        <lane id=":B0_8_0" index="0" speed="9.26" length="10.42" shape="401.60,189.60 400.85,194.85 398.60,198.60 397.96,198.98"/>
    </edge>
    <edge id=":B0_14" function="internal">
        <lane id=":B0_14_0" index="0" speed="9.26" length="8.93" shape="397.96,198.98 394.85,200.85 389.60,201.60"/>
    </edge>
    <edge id=":B0_9" function="internal">
        <lane id=":B0_9_0" index="0" speed="6.51" length="9.03" shape="389.60,195.20 392.05,194.85 393.80,193.80 394.85,192.05 395.20,189.60"/>
    </edge>
    <edge id=":B0_10" function="internal">
        <lane id=":B0_10_0" index="0" speed="13.89" length="20.80" shape="389.60,195.20 410.40,195.20"/>
    </edge>
    <edge id=":B0_11" function="internal">
        <lane id=":B0_11_0" index="0" speed="9.26" length="10.42" shape="389.60,198.40 394.85,199.15 398.60,201.40 398.98,202.04"/>
    </edge>
    <edge id=":B0_15" function="internal">
        <lane id=":B0_15_0" index="0" speed="9.26" length="8.93" shape="398.98,202.04 400.85,205.15 401.60,210.40"/>
    </edge>
    <edge id=":C0_0" function="internal">
        <lane id=":C0_0_0" index="0" speed="6.51" length="9.03" shape="595.20,210.40 594.85,207.95 593.80,206.20 592.05,205.15 589.60,204.80"/>
    </edge>
    <edge id=":C0_1" function="internal">
        <lane id=":C0_1_0" index="0" speed="13.89" length="20.80" shape="595.20,210.40 595.20,189.60"/>
    </edge>
    <edge id=":C0_2" function="internal">
        <lane id=":C0_2_0" index="0" speed="9.26" length="10.42" shape="598.40,210.40 599.15,205.15 601.40,201.40 602.04,201.02"/>
    </edge>
    <edge id=":C0_12" function="internal">
        <lane id=":C0_12_0" index="0" speed="9.26" length="8.93" shape="602.04,201.02 605.15,199.15 610.40,198.40"/>
    </edge>
    <edge id=":C0_3" function="internal">
        <lane id=":C0_3_0" index="0" speed="6.51" length="9.03" shape="610.40,204.80 607.95,205.15 606.20,206.20 605.15,207.95 604.80,210.40"/>
    </edge>
    <edge id=":C0_4" function="internal">
        <lane id=":C0_4_0" index="0" speed="13.89" length="20.80" shape="610.40,204.80 589.60,204.80"/>
    </edge>
    <edge id=":C0_5" function="internal">
        <lane id=":C0_5_0" index="0" speed="9.26" length="10.42" shape="610.40,201.60 605.15,200.85 601.40,198.60 601.02,197.96"/>
    </edge>
    <edge id=":C0_13" function="internal">
        <lane id=":C0_13_0" index="0" speed="9.26" length="8.93" shape="601.02,197.96 599.15,194.85 598.40,189.60"/>
    </edge>
    <edge id=":C0_6" function="internal">
        <lane id=":C0_6_0" index="0" speed="6.51" length="9.03" shape="604.80,189.60 605.15,192.05 606.20,193.80 607.95,194.85 610.40,195.20"/>
    </edge>
    <edge id=":C0_7" function="internal">
        <lane id=":C0_7_0" index="0" speed="13.89" length="20.80" shape="604.80,189.60 604.80,210.40"/>
    </edge>
    <edge id=":C0_8" function="internal">
        <lane id=":C0_8_0" index="0" speed="9.26" length="10.42" shape="601.60,189.60 600.85,194.85 598.60,198.60 597.96,198.98"/>
    </edge>
    <edge id=":C0_14" function="internal">
        <lane id=":C0_14_0" index="0" speed="9.26" length="8.93" shape="597.96,198.98 594.85,200.85 589.60,201.60"/>
    </edge>
    <edge id=":C0_9" function="internal">
        <lane id=":C0_9_0" index="0" speed="6.51" length="9.03" shape="589.60,195.20 592.05,194.85 593.80,193.80 594.85,192.05 595.20,189.60"/>
    </edge>
    <edge id=":C0_10" function="internal">
        <lane id=":C0_10_0" index="0" speed="13.89" length="20.80" shape="589.60,195.20 610.40,195.20"/>
    </edge>
    <edge id=":C0_11" function="internal">
        <lane id=":C0_11_0" index="0" speed="9.26" length="10.42" shape="589.60,198.40 594.85,199.15 598.60,201.40 598.98,202.04"/>
    </edge>
    <edge id=":C0_15" function="internal">
        <lane id=":C0_15_0" index="0" speed="9.26" length="8.93" shape="598.98,202.04 600.85,205.15 601.60,210.40"/>
    </edge>

    <edge id="A0B0" from="A0" to="B0" priority="-1">
        <lane id="A0B0_0" index="0" speed="13.89" length="179.20" shape="210.40,195.20 389.60,195.20"/>
        <lane id="A0B0_1" index="1" speed="13.89" length="179.20" shape="210.40,198.40 389.60,198.40"/>
    </edge>
    <edge id="A0bottom0" from="A0" to="bottom0" priority="-1">
        <lane id="A0bottom0_0" index="0" speed="13.89" length="189.60" shape="195.20,189.60 195.20,0.00"/>
        <lane id="A0bottom0_1" index="1" speed="13.89" length="189.60" shape="198.40,189.60 198.40,0.00"/>
    </edge>
    <edge id="A0left0" from="A0" to="left0" priority="-1">
        <lane id="A0left0_0" index="0" speed="13.89" length="189.60" shape="189.60,204.80 0.00,204.80"/>
        <lane id="A0left0_1" index="1" speed="13.89" length="189.60" shape="189.60,201.60 0.00,201.60"/>
    </edge>
    <edge id="A0top0" from="A0" to="top0" priority="-1">
        <lane id="A0top0_0" index="0" speed="13.89" length="189.60" shape="204.80,210.40 204.80,400.00"/>
        <lane id="A0top0_1" index="1" speed="13.89" length="189.60" shape="201.60,210.40 201.60,400.00"/>
    </edge>
    <edge id="B0A0" from="B0" to="A0" priority="-1">
        <lane id="B0A0_0" index="0" speed="13.89" length="179.20" shape="389.60,204.80 210.40,204.80"/>
        <lane id="B0A0_1" index="1" speed="13.89" length="179.20" shape="389.60,201.60 210.40,201.60"/>
    </edge>
    <edge id="B0C0" from="B0" to="C0" priority="-1">
        <lane id="B0C0_0" index="0" speed="13.89" length="179.20" shape="410.40,195.20 589.60,195.20"/>
        <lane id="B0C0_1" index="1" speed="13.89" length="179.20" shape="410.40,198.40 589.60,198.40"/>
    </edge>
    <edge id="B0bottom1" from="B0" to="bottom1" priority="-1">
        <lane id="B0bottom1_0" index="0" speed="13.89" length="189.60" shape="395.20,189.60 395.20,0.00"/>
        <lane id="B0bottom1_1" index="1" speed="13.89" length="189.60" shape="398.40,189.60 398.40,0.00"/>
    </edge>
    <edge id="B0top1" from="B0" to="top1" priority="-1">
        <lane id="B0top1_0" index="0" speed="13.89" length="189.60" shape="404.80,210.40 404.80,400.00"/>
        <lane id="B0top1_1" index="1" speed="13.89" length="189.60" shape="401.60,210.40 401.60,400.00"/>
    </edge>
    <edge id="C0B0" from="C0" to="B0" priority="-1">
        <lane id="C0B0_0" index="0" speed="13.89" length="179.20" shape="589.60,204.80 410.40,204.80"/>
        <lane id="C0B0_1" index="1" speed="13.89" length="179.20" shape="589.60,201.60 410.40,201.60"/>
    </edge>
    <edge id="C0bottom2" from="C0" to="bottom2" priority="-1">
        <lane id="C0bottom2_0" index="0" speed="13.89" length="189.60" shape="595.20,189.60 595.20,0.00"/>
        <lane id="C0bottom2_1" index="1" speed="13.89" length="189.60" shape="598.40,189.60 598.40,0.00"/>
    </edge>
    <edge id="C0right0" from="C0" to="right0" priority="-1">
        <lane id="C0right0_0" index="0" speed="13.89" length="189.60" shape="610.40,195.20 800.00,195.20"/>
        <lane id="C0right0_1" index="1" speed="13.89" length="189.60" shape="610.40,198.40 800.00,198.40"/>
    </edge>
    <edge id="C0top2" from="C0" to="top2" priority="-1">
        <lane id="C0top2_0" index="0" speed="13.89" length="189.60" shape="604.80,210.40 604.80,400.00"/>
        <lane id="C0top2_1" index="1" speed="13.89" length="189.60" shape="601.60,210.40 601.60,400.00"/>
    </edge>
    <edge id="bottom0A0" from="bottom0" to="A0" priority="-1">
        <lane id="bottom0A0_0" index="0" speed="13.89" length="189.60" shape="204.80,0.00 204.80,189.60"/>
        <lane id="bottom0A0_1" index="1" speed="13.89" length="189.60" shape="201.60,0.00 201.60,189.60"/>
    </edge>
    <edge id="bottom1B0" from="bottom1" to="B0" priority="-1">
        <lane id="bottom1B0_0" index="0" speed="13.89" length="189.60" shape="404.80,0.00 404.80,189.60"/>
        <lane id="bottom1B0_1" index="1" speed="13.89" length="189.60" shape="401.60,0.00 401.60,189.60"/>
    </edge>
    <edge id="bottom2C0" from="bottom2" to="C0" priority="-1">
        <lane id="bottom2C0_0" index="0" speed="13.89" length="189.60" shape="604.80,0.00 604.80,189.60"/>
        <lane id="bottom2C0_1" index="1" speed="13.89" length="189.60" shape="601.60,0.00 601.60,189.60"/>
    </edge>
    <edge id="left0A0" from="left0" to="A0" priority="-1">
        <lane id="left0A0_0" index="0" speed="13.89" length="189.60" shape="0.00,195.20 189.60,195.20"/>
        <lane id="left0A0_1" index="1" speed="13.89" length="189.60" shape="0.00,198.40 189.60,198.40"/>
    </edge>
    <edge id="right0C0" from="right0" to="C0" priority="-1">
        <lane id="right0C0_0" index="0" speed="13.89" length="189.60" shape="800.00,204.80 610.40,204.80"/>
        <lane id="right0C0_1" index="1" speed="13.89" length="189.60" shape="800.00,201.60 610.40,201.60"/>
    </edge>
    <edge id="top0A0" from="top0" to="A0" priority="-1">
        <lane id="top0A0_0" index="0" speed="13.89" length="189.60" shape="195.20,400.00 195.20,210.40"/>
        <lane id="top0A0_1" index="1" speed="13.89" length="189.60" shape="198.40,400.00 198.40,210.40"/>
    </edge>
    <edge id="top1B0" from="top1" to="B0" priority="-1">
        <lane id="top1B0_0" index="0" speed="13.89" length="189.60" shape="395.20,400.00 395.20,210.40"/>
        <lane id="top1B0_1" index="1" speed="13.89" length="189.60" shape="398.40,400.00 398.40,210.40"/>
    </edge>
    <edge id="top2C0" from="top2" to="C0" priority="-1">
        <lane id="top2C0_0" index="0" speed="13.89" length="189.60" shape="595.20,400.00 595.20,210.40"/>
        <lane id="top2C0_1" index="1" speed="13.89" length="189.60" shape="598.40,400.00 598.40,210.40"/>
    </edge>

    <tlLogic id="A0" type="static" programID="0" offset="0">
        <phase duration="33" state="GGgrrrGGgrrr"/>
        <phase duration="3"  state="yygrrryygrrr"/>
        <phase duration="6"  state="rrGrrrrrGrrr"/>
        <phase duration="3"  state="rryrrrrryrrr"/>
        <phase duration="33" state="rrrGGgrrrGGg"/>
        <phase duration="3"  state="rrryygrrryyg"/>
        <phase duration="6"  state="rrrrrGrrrrrG"/>
        <phase duration="3"  state="rrrrryrrrrry"/>
    </tlLogic>
    <tlLogic id="B0" type="static" programID="0" offset="0">
        <phase duration="33" state="GGgrrrGGgrrr"/>
        <phase duration="3"  state="yygrrryygrrr"/>
        <phase duration="6"  state="rrGrrrrrGrrr"/>
        <phase duration="3"  state="rryrrrrryrrr"/>
        <phase duration="33" state="rrrGGgrrrGGg"/>
        <phase duration="3"  state="rrryygrrryyg"/>
        <phase duration="6"  state="rrrrrGrrrrrG"/>
        <phase duration="3"  state="rrrrryrrrrry"/>
    </tlLogic>
    <tlLogic id="C0" type="static" programID="0" offset="0">
        <phase duration="33" state="GGgrrrGGgrrr"/>
        <phase duration="3"  state="yygrrryygrrr"/>
        <phase duration="6"  state="rrGrrrrrGrrr"/>
        <phase duration="3"  state="rryrrrrryrrr"/>
        <phase duration="33" state="rrrGGgrrrGGg"/>
        <phase duration="3"  state="rrryygrrryyg"/>
        <phase duration="6"  state="rrrrrGrrrrrG"/>
        <phase duration="3"  state="rrrrryrrrrry"/>
    </tlLogic>

    <junction id="A0" type="traffic_light" x="200.00" y="200.00" incLanes="top0A0_0 top0A0_1 B0A0_0 B0A0_1 bottom0A0_0 bottom0A0_1 left0A0_0 left0A0_1" intLanes=":A0_0_0 :A0_1_0 :A0_12_0 :A0_3_0 :A0_4_0 :A0_13_0 :A0_6_0 :A0_7_0 :A0_14_0 :A0_9_0 :A0_10_0 :A0_15_0" shape="193.60,210.40 206.40,210.40 206.84,208.18 207.40,207.40 208.18,206.84 209.18,206.51 210.40,206.40 210.40,193.60 208.18,193.16 207.40,192.60 206.84,191.82 206.51,190.82 206.40,189.60 193.60,189.60 193.16,191.82 192.60,192.60 191.82,193.16 190.82,193.49 189.60,193.60 189.60,206.40 191.82,206.84 192.60,207.40 193.16,208.18 193.49,209.18">
        <request index="0"  response="000000000000" foes="000000010000" cont="0"/>
        <request index="1"  response="100000000000" foes="111100010000" cont="0"/>
        <request index="2"  response="100010100000" foes="100010110000" cont="1"/>
        <request index="3"  response="000010000000" foes="000010000000" cont="0"/>
        <request index="4"  response="000010000111" foes="100010000111" cont="0"/>
        <request index="5"  response="010110000100" foes="010110000100" cont="1"/>
        <request index="6"  response="000000000000" foes="010000000000" cont="0"/>
        <request index="7"  response="000000100000" foes="010000111100" cont="0"/>
        <request index="8"  response="100000100010" foes="110000100010" cont="1"/>
        <request index="9"  response="000000000010" foes="000000000010" cont="0"/>
        <request index="10" response="000111000010" foes="000111100010" cont="0"/>
        <request index="11" response="000100010110" foes="000100010110" cont="1"/>
    </junction>
    <junction id="B0" type="traffic_light" x="400.00" y="200.00" incLanes="top1B0_0 top1B0_1 C0B0_0 C0B0_1 bottom1B0_0 bottom1B0_1 A0B0_0 A0B0_1" intLanes=":B0_0_0 :B0_1_0 :B0_12_0 :B0_3_0 :B0_4_0 :B0_13_0 :B0_6_0 :B0_7_0 :B0_14_0 :B0_9_0 :B0_10_0 :B0_15_0" shape="393.60,210.40 406.40,210.40 406.84,208.18 407.40,207.40 408.18,206.84 409.18,206.51 410.40,206.40 410.40,193.60 408.18,193.16 407.40,192.60 406.84,191.82 406.51,190.82 406.40,189.60 393.60,189.60 393.16,191.82 392.60,192.60 391.82,193.16 390.82,193.49 389.60,193.60 389.60,206.40 391.82,206.84 392.60,207.40 393.16,208.18 393.49,209.18">
        <request index="0"  response="000000000000" foes="000000010000" cont="0"/>
        <request index="1"  response="100000000000" foes="111100010000" cont="0"/>
        <request index="2"  response="100010100000" foes="100010110000" cont="1"/>
        <request index="3"  response="000010000000" foes="000010000000" cont="0"/>
        <request index="4"  response="000010000111" foes="100010000111" cont="0"/>
        <request index="5"  response="010110000100" foes="010110000100" cont="1"/>
        <request index="6"  response="000000000000" foes="010000000000" cont="0"/>
        <request index="7"  response="000000100000" foes="010000111100" cont="0"/>
        <request index="8"  response="100000100010" foes="110000100010" cont="1"/>
        <request index="9"  response="000000000010" foes="000000000010" cont="0"/>
        <request index="10" response="000111000010" foes="000111100010" cont="0"/>
        <request index="11" response="000100010110" foes="000100010110" cont="1"/>
    </junction>
    <junction id="C0" type="traffic_light" x="600.00" y="200.00" incLanes="top2C0_0 top2C0_1 right0C0_0 right0C0_1 bottom2C0_0 bottom2C0_1 B0C0_0 B0C0_1" intLanes=":C0_0_0 :C0_1_0 :C0_12_0 :C0_3_0 :C0_4_0 :C0_13_0 :C0_6_0 :C0_7_0 :C0_14_0 :C0_9_0 :C0_10_0 :C0_15_0" shape="593.60,210.40 606.40,210.40 606.84,208.18 607.40,207.40 608.18,206.84 609.18,206.51 610.40,206.40 610.40,193.60 608.18,193.16 607.40,192.60 606.84,191.82 606.51,190.82 606.40,189.60 593.60,189.60 593.16,191.82 592.60,192.60 591.82,193.16 590.82,193.49 589.60,193.60 589.60,206.40 591.82,206.84 592.60,207.40 593.16,208.18 593.49,209.18">
        <request index="0"  response="000000000000" foes="000000010000" cont="0"/>
        <request index="1"  response="100000000000" foes="111100010000" cont="0"/>
        <request index="2"  response="100010100000" foes="100010110000" cont="1"/>
        <request index="3"  response="000010000000" foes="000010000000" cont="0"/>
        <request index="4"  response="000010000111" foes="100010000111" cont="0"/>
        <request index="5"  response="010110000100" foes="010110000100" cont="1"/>
        <request index="6"  response="000000000000" foes="010000000000" cont="0"/>
        <request index="7"  response="000000100000" foes="010000111100" cont="0"/>
        <request index="8"  response="100000100010" foes="110000100010" cont="1"/>
        <request index="9"  response="000000000010" foes="000000000010" cont="0"/>
        <request index="10" response="000111000010" foes="000111100010" cont="0"/>
        <request index="11" response="000100010110" foes="000100010110" cont="1"/>
    </junction>
    <junction id="bottom0" type="dead_end" x="200.00" y="0.00" incLanes="A0bottom0_0 A0bottom0_1" intLanes="" shape="200.00,0.00 193.60,0.00 200.00,0.00" fringe="outer"/>
    <junction id="bottom1" type="dead_end" x="400.00" y="0.00" incLanes="B0bottom1_0 B0bottom1_1" intLanes="" shape="400.00,0.00 393.60,0.00 400.00,0.00" fringe="outer"/>
    <junction id="bottom2" type="dead_end" x="600.00" y="0.00" incLanes="C0bottom2_0 C0bottom2_1" intLanes="" shape="600.00,0.00 593.60,0.00 600.00,0.00" fringe="outer"/>
    <junction id="left0" type="dead_end" x="0.00" y="200.00" incLanes="A0left0_0 A0left0_1" intLanes="" shape="0.00,200.00 0.00,206.40 0.00,200.00" fringe="outer"/>
    <junction id="right0" type="dead_end" x="800.00" y="200.00" incLanes="C0right0_0 C0right0_1" intLanes="" shape="800.00,200.00 800.00,193.60 800.00,200.00" fringe="outer"/>
    <junction id="top0" type="dead_end" x="200.00" y="400.00" incLanes="A0top0_0 A0top0_1" intLanes="" shape="200.00,400.00 206.40,400.00 200.00,400.00" fringe="outer"/>
    <junction id="top1" type="dead_end" x="400.00" y="400.00" incLanes="B0top1_0 B0top1_1" intLanes="" shape="400.00,400.00 406.40,400.00 400.00,400.00" fringe="outer"/>
    <junction id="top2" type="dead_end" x="600.00" y="400.00" incLanes="C0top2_0 C0top2_1" intLanes="" shape="600.00,400.00 606.40,400.00 600.00,400.00" fringe="outer"/>

    <junction id=":A0_12_0" type="internal" x="202.04" y="201.02" incLanes=":A0_2_0 bottom0A0_0" intLanes=":A0_4_0 :A0_5_0 :A0_6_0 :A0_7_0 :A0_10_0 :A0_11_0"/>
    <junction id=":A0_13_0" type="internal" x="201.02" y="197.96" incLanes=":A0_5_0 left0A0_0" intLanes=":A0_1_0 :A0_2_0 :A0_7_0 :A0_8_0 :A0_9_0 :A0_10_0"/>
    <junction id=":A0_14_0" type="internal" x="197.96" y="198.98" incLanes=":A0_8_0 top0A0_0" intLanes=":A0_0_0 :A0_1_0 :A0_4_0 :A0_5_0 :A0_10_0 :A0_11_0"/>
    <junction id=":A0_15_0" type="internal" x="198.98" y="202.04" incLanes=":A0_11_0 B0A0_0" intLanes=":A0_1_0 :A0_2_0 :A0_3_0 :A0_4_0 :A0_7_0 :A0_8_0"/>
    <junction id=":B0_12_0" type="internal" x="402.04" y="201.02" incLanes=":B0_2_0 bottom1B0_0" intLanes=":B0_4_0 :B0_5_0 :B0_6_0 :B0_7_0 :B0_10_0 :B0_11_0"/>
    <junction id=":B0_13_0" type="internal" x="401.02" y="197.96" incLanes=":B0_5_0 A0B0_0" intLanes=":B0_1_0 :B0_2_0 :B0_7_0 :B0_8_0 :B0_9_0 :B0_10_0"/>
    <junction id=":B0_14_0" type="internal" x="397.96" y="198.98" incLanes=":B0_8_0 top1B0_0" intLanes=":B0_0_0 :B0_1_0 :B0_4_0 :B0_5_0 :B0_10_0 :B0_11_0"/>
    <junction id=":B0_15_0" type="internal" x="398.98" y="202.04" incLanes=":B0_11_0 C0B0_0" intLanes=":B0_1_0 :B0_2_0 :B0_3_0 :B0_4_0 :B0_7_0 :B0_8_0"/>
    <junction id=":C0_12_0" type="internal" x="602.04" y="201.02" incLanes=":C0_2_0 bottom2C0_0" intLanes=":C0_4_0 :C0_5_0 :C0_6_0 :C0_7_0 :C0_10_0 :C0_11_0"/>
    <junction id=":C0_13_0" type="internal" x="601.02" y="197.96" incLanes=":C0_5_0 B0C0_0" intLanes=":C0_1_0 :C0_2_0 :C0_7_0 :C0_8_0 :C0_9_0 :C0_10_0"/>
    <junction id=":C0_14_0" type="internal" x="597.96" y="198.98" incLanes=":C0_8_0 top2C0_0" intLanes=":C0_0_0 :C0_1_0 :C0_4_0 :C0_5_0 :C0_10_0 :C0_11_0"/>
    <junction id=":C0_15_0" type="internal" x="598.98" y="202.04" incLanes=":C0_11_0 right0C0_0" intLanes=":C0_1_0 :C0_2_0 :C0_3_0 :C0_4_0 :C0_7_0 :C0_8_0"/>

    <connection from="A0B0" to="B0bottom1" fromLane="0" toLane="0" via=":B0_9_0" tl="B0" linkIndex="9" dir="r" state="o"/>
    <connection from="A0B0" to="B0C0" fromLane="0" toLane="0" via=":B0_10_0" tl="B0" linkIndex="10" dir="s" state="o"/>
    <connection from="A0B0" to="B0top1" fromLane="1" toLane="1" via=":B0_11_0" tl="B0" linkIndex="11" dir="l" state="o"/>
    <connection from="B0A0" to="A0top0" fromLane="0" toLane="0" via=":A0_3_0" tl="A0" linkIndex="3" dir="r" state="o"/>
    <connection from="B0A0" to="A0left0" fromLane="0" toLane="0" via=":A0_4_0" tl="A0" linkIndex="4" dir="s" state="o"/>
    <connection from="B0A0" to="A0bottom0" fromLane="1" toLane="1" via=":A0_5_0" tl="A0" linkIndex="5" dir="l" state="o"/>
    <connection from="B0C0" to="C0bottom2" fromLane="0" toLane="0" via=":C0_9_0" tl="C0" linkIndex="9" dir="r" state="o"/>
    <connection from="B0C0" to="C0right0" fromLane="0" toLane="0" via=":C0_10_0" tl="C0" linkIndex="10" dir="s" state="o"/>
    <connection from="B0C0" to="C0top2" fromLane="1" toLane="1" via=":C0_11_0" tl="C0" linkIndex="11" dir="l" state="o"/>
    <connection from="C0B0" to="B0top1" fromLane="0" toLane="0" via=":B0_3_0" tl="B0" linkIndex="3" dir="r" state="o"/>
    <connection from="C0B0" to="B0A0" fromLane="0" toLane="0" via=":B0_4_0" tl="B0" linkIndex="4" dir="s" state="o"/>
    <connection from="C0B0" to="B0bottom1" fromLane="1" toLane="1" via=":B0_5_0" tl="B0" linkIndex="5" dir="l" state="o"/>
    <connection from="bottom0A0" to="A0B0" fromLane="0" toLane="0" via=":A0_6_0" tl="A0" linkIndex="6" dir="r" state="O"/>
    <connection from="bottom0A0" to="A0top0" fromLane="0" toLane="0" via=":A0_7_0" tl="A0" linkIndex="7" dir="s" state="O"/>
    <connection from="bottom0A0" to="A0left0" fromLane="1" toLane="1" via=":A0_8_0" tl="A0" linkIndex="8" dir="l" state="o"/>
    <connection from="bottom1B0" to="B0C0" fromLane="0" toLane="0" via=":B0_6_0" tl="B0" linkIndex="6" dir="r" state="O"/>
    <connection from="bottom1B0" to="B0top1" fromLane="0" toLane="0" via=":B0_7_0" tl="B0" linkIndex="7" dir="s" state="O"/>
    <connection from="bottom1B0" to="B0A0" fromLane="1" toLane="1" via=":B0_8_0" tl="B0" linkIndex="8" dir="l" state="o"/>
    <connection from="bottom2C0" to="C0right0" fromLane="0" toLane="0" via=":C0_6_0" tl="C0" linkIndex="6" dir="r" state="O"/>
    <connection from="bottom2C0" to="C0top2" fromLane="0" toLane="0" via=":C0_7_0" tl="C0" linkIndex="7" dir="s" state="O"/>
    <connection from="bottom2C0" to="C0B0" fromLane="1" toLane="1" via=":C0_8_0" tl="C0" linkIndex="8" dir="l" state="o"/>
    <connection from="left0A0" to="A0bottom0" fromLane="0" toLane="0" via=":A0_9_0" tl="A0" linkIndex="9" dir="r" state="o"/>
    <connection from="left0A0" to="A0B0" fromLane="0" toLane="0" via=":A0_10_0" tl="A0" linkIndex="10" dir="s" state="o"/>
    <connection from="left0A0" to="A0top0" fromLane="1" toLane="1" via=":A0_11_0" tl="A0" linkIndex="11" dir="l" state="o"/>
    <connection from="right0C0" to="C0top2" fromLane="0" toLane="0" via=":C0_3_0" tl="C0" linkIndex="3" dir="r" state="o"/>
    <connection from="right0C0" to="C0B0" fromLane="0" toLane="0" via=":C0_4_0" tl="C0" linkIndex="4" dir="s" state="o"/>
    <connection from="right0C0" to="C0bottom2" fromLane="1" toLane="1" via=":C0_5_0" tl="C0" linkIndex="5" dir="l" state="o"/>
    <connection from="top0A0" to="A0left0" fromLane="0" toLane="0" via=":A0_0_0" tl="A0" linkIndex="0" dir="r" state="O"/>
    <connection from="top0A0" to="A0bottom0" fromLane="0" toLane="0" via=":A0_1_0" tl="A0" linkIndex="1" dir="s" state="O"/>
    <connection from="top0A0" to="A0B0" fromLane="1" toLane="1" via=":A0_2_0" tl="A0" linkIndex="2" dir="l" state="o"/>
    <connection from="top1B0" to="B0A0" fromLane="0" toLane="0" via=":B0_0_0" tl="B0" linkIndex="0" dir="r" state="O"/>
    <connection from="top1B0" to="B0bottom1" fromLane="0" toLane="0" via=":B0_1_0" tl="B0" linkIndex="1" dir="s" state="O"/>
    <connection from="top1B0" to="B0C0" fromLane="1" toLane="1" via=":B0_2_0" tl="B0" linkIndex="2" dir="l" state="o"/>
    <connection from="top2C0" to="C0B0" fromLane="0" toLane="0" via=":C0_0_0" tl="C0" linkIndex="0" dir="r" state="O"/>
    <connection from="top2C0" to="C0bottom2" fromLane="0" toLane="0" via=":C0_1_0" tl="C0" linkIndex="1" dir="s" state="O"/>
    <connection from="top2C0" to="C0right0" fromLane="1" toLane="1" via=":C0_2_0" tl="C0" linkIndex="2" dir="l" state="o"/>

    <connection from=":A0_0" to="A0left0" fromLane="0" toLane="0" dir="r" state="M"/>
    <connection from=":A0_1" to="A0bottom0" fromLane="0" toLane="0" dir="s" state="M"/>
    <connection from=":A0_2" to="A0B0" fromLane="0" toLane="1" via=":A0_12_0" dir="l" state="m"/>
    <connection from=":A0_12" to="A0B0" fromLane="0" toLane="1" dir="l" state="M"/>
    <connection from=":A0_3" to="A0top0" fromLane="0" toLane="0" dir="r" state="M"/>
    <connection from=":A0_4" to="A0left0" fromLane="0" toLane="0" dir="s" state="M"/>
    <connection from=":A0_5" to="A0bottom0" fromLane="0" toLane="1" via=":A0_13_0" dir="l" state="m"/>
    <connection from=":A0_13" to="A0bottom0" fromLane="0" toLane="1" dir="l" state="M"/>
    <connection from=":A0_6" to="A0B0" fromLane="0" toLane="0" dir="r" state="M"/>
    <connection from=":A0_7" to="A0top0" fromLane="0" toLane="0" dir="s" state="M"/>
    <connection from=":A0_8" to="A0left0" fromLane="0" toLane="1" via=":A0_14_0" dir="l" state="m"/>
    <connection from=":A0_14" to="A0left0" fromLane="0" toLane="1" dir="l" state="M"/>
    <connection from=":A0_9" to="A0bottom0" fromLane="0" toLane="0" dir="r" state="M"/>
    <connection from=":A0_10" to="A0B0" fromLane="0" toLane="0" dir="s" state="M"/>
    <connection from=":A0_11" to="A0top0" fromLane="0" toLane="1" via=":A0_15_0" dir="l" state="m"/>
    <connection from=":A0_15" to="A0top0" fromLane="0" toLane="1" dir="l" state="M"/>
    <connection from=":B0_0" to="B0A0" fromLane="0" toLane="0" dir="r" state="M"/>
    <connection from=":B0_1" to="B0bottom1" fromLane="0" toLane="0" dir="s" state="M"/>