<configuration>

    <input>
        <net-file value="sumo.net.xml"/>
        <route-files value="sumo.rou.xml"/>
        <additional-files value="detectors.add.xml"/>
    </input>

    <time>
        <begin value="0"/>
        <end value="7200"/>
    </time>

    <report>
        <no-warnings value="true"/>
        <duration-log.disable value="true"/>
        <no-step-log value="true"/>
    </report>

</configuration>
